Using this file to debug cvs commits.  Delete when fixed.

New line.
New line.
New line.
New line.
New line.
New line.
New line.
New line.
